1mg/circuit_plusmg_0.dss
clear
set defaultbasefrequency=60
new object=circuit.lehigh basekv=115 pu=1.0001 phases=3 bus1=sourcebus angle=30 mvasc3=20000 mvasc1=21000
edit object=vsource.source basekv=115 bus1=sourcebus.1.2.3 pu=1.00 r1=0 x1=0.0001 r0=0 x0=0.0001
new object=vsource.secondsource basekv=4.16 bus1=680.1.2.3 pu=1.00 r1=0 x1=0.0001 r0=0 x0=0.0001
new object=transformer.sub phases=3 windings=2 xhl=0.008 buses=[sourcebus.1.2.3,650.1.2.3] conns=[delta,wye] kvs=[115,4.16] kvas=[5000,5000] %rs=[0.0005,0.0005]
new object=transformer.reg1 phases=1 bank=reg1 xhl=0.01 kvas=[1666,1666] buses=[650.1,rg60.1] kvs=[2.4,2.4] %loadloss=0.01
new object=regcontrol.reg1 transformer=reg1 winding=2 vreg=121 band=2 ptratio=20 ctprim=700 r=3 x=9
new object=transformer.reg2 phases=1 bank=reg1 xhl=0.01 kvas=[1666,1666] buses=[650.2,rg60.2] kvs=[2.4,2.4] %loadloss=0.01
new object=regcontrol.reg2 transformer=reg2 winding=2 vreg=121 band=2 ptratio=20 ctprim=700 r=3 x=9
new object=transformer.reg3 phases=1 bank=reg1 xhl=0.01 kvas=[1666,1666] buses=[650.3,rg60.3] kvs=[2.4,2.4] %loadloss=0.01
new object=regcontrol.reg3 transformer=reg3 winding=2 vreg=121 band=2 ptratio=20 ctprim=700 r=3 x=9
new object=transformer.xfm1 phases=3 windings=2 xhl=2 buses=[633.1.2.3,634.1.2.3] conns=[wye,wye] kvs=[4.16,0.480] kvas=[500,500] %rs=[0.55,0.55] xht=1 xlt=1
new object=linecode.mtx601 nphases=3 basefreq=60 rmatrix=[0.3465|0.1560,0.3375|0.1580,0.1535,0.3414] xmatrix=[1.0179|0.5017,1.0478|0.4236,0.3849,1.0348] units=mi
new object=linecode.mtx602 nphases=3 basefreq=60 rmatrix=[0.7526|0.1580,0.7475|0.1560,0.1535,0.7436] xmatrix=[1.1814|0.4236,1.1983|0.5017,0.3849,1.2112] units=mi
new object=linecode.mtx603 nphases=2 basefreq=60 rmatrix=[1.3238|0.2066,1.3294] xmatrix=[1.3569|0.4591,1.3471] units=mi
new object=linecode.mtx604 nphases=2 basefreq=60 rmatrix=[1.3238|0.2066,1.3294] xmatrix=[1.3569|0.4591,1.3471] units=mi
new object=linecode.mtx605 nphases=1 basefreq=60 rmatrix=[1.3292] xmatrix=[1.3475] units=mi
new object=linecode.mtx606 nphases=3 units=mi rmatrix=[0.791721|0.318476,0.781649|0.28345,0.318476,0.791721] xmatrix=[0.438352|0.0276838,0.396697|-0.0184204,0.0276838,0.438352] cmatrix=[383.948|0,383.948|0,0,383.948]
new object=linecode.mtx607 nphases=1 basefreq=60 rmatrix=[1.3425] xmatrix=[0.5124] cmatrix=[236] units=mi
new object=loadshape.solar_670_shape npts=8760 interval=1 useactual=yes mult=[0.0,0.0,0.0,0.0,0.0,0.0,0.0,0.0,35.25727116628018,106.89963323150704,150.90086603675516,463.7036134085886,106.33607691367928,248.4929813114665,371.7520109912319,400.2402424704799,199.97905538153023,13.256654763656108,0.0,0.0,0.0,0.0,0.0,0.0,0.0,0.0,0.0,0.0,0.0,0.0,0.0,0.0,92.5151587351844,234.95419484039095,328.8793050156613,12.97452305623671,705.9911113508506,252.44211811832693,916.6883432262736,630.3996124787633,332.8284418225217,28.487524382236884,0.0,0.0,0.0,0.0,0.0,0.0,0.0,0.0,0.0,0.0,0.0,0.0,0.0,0.0,271.3399928363488,632.6559590411074,840.5332880363586,356.2390096652317,633.5023541633656,631.8095639188491,516.1659690483742,448.18990498557736,235.2363265478104,18.61574301060243,0.0,0.0,0.0,0.0,0.0,0.0,0.0,0.0,0.0,0.0,0.0,0.0,0.0,0.0,412.9326338192971,946.0222627307684,1343.160470613657,1591.0891885102849,1685.578562100394,1641.013772977318,1443.5724887685403,1106.51348552875,603.039907829193,118.46420484765784,0.0,0.0,0.0,0.0,0.0,0.0,0.0,0.0,0.0,0.0,0.0,0.0,0.0,0.0,449.0363001078356,1001.8701988595868,1409.7258761393573,1656.8081989137268,1747.0670110865672,1685.2964303929748,1473.7528033952935,1123.4371453918468,608.6811277835587,115.64359487047498,0.0,0.0,0.0,0.0,0.0,0.0,0.0,0.0,0.0,0.0,0.0,0.0,0.0,0.0,354.82905822514584,840.251156328939,1317.2114245011835,1180.412901253332,1334.4158018776782,1376.4428198280018,1381.801908074948,1048.4099099345983,567.5005049554933,106.05394520625993,0.0,0.0,0.0,0.0,0.0,0.0,0.0,0.0,0.0,0.0,0.0,0.0,0.0,0.0,360.18814647209217,357.6496682023287,1278.0050165280431,1465.8559439755948,1312.6980242794846,1256.8507952476773,1059.4095110388994,541.5514588430199,286.00659904009075,30.462446334172643,0.0,0.0,0.0,0.0,0.0,0.0,0.0,0.0,0.0,0.0,0.0,0.0,0.0,0.0,366.6757615487161,854.9184696296923,225.64667688359532,297.28903894882217,665.3747519376242,770.8644337290452,631.5281393084409,409.2663358168672,217.18484695204677,25.10335808722632,0.0,0.0,0.0,0.0,0.0,0.0,0.0,0.0,0.0,0.0,0.0,0.0,0.0,0.0,376.82967462776986,865.071675611735,463.7036134085886,986.3571975335868,772.5572239735617,360.7524098869309,462.575086578911,386.9835877068237,200.54331879636905,94.77150529752848,0.0,0.0,0.0,0.0,0.0,0.0,0.0,0.0,0.0,0.0,0.0,0.0,0.0,0.0,174.59356558688452,431.5490839269106,695.2729348569579,1191.6953411620634,691.6059297575168,903.149556755198,917.2526066411124,740.1198556874532,412.9326338192971,72.48875718748504,0.0,0.0,0.0,0.0,0.0,0.0,0.0,0.0,0.0,0.0,0.0,0.0,0.0,0.0,454.6775200622012,1006.3828919842748,1408.5980564066906,1650.8855543489526,1740.0158396921154,1685.578562100394,1488.702248403466,1158.9765482655466,687.939631755087,169.51660904735758,0.0,0.0,0.0,0.0,0.0,0.0,0.0,0.0,0.0,0.0,0.0,0.0,0.0,0.0,419.9845123107599,953.9198292474784,1338.647070391958,1623.2437179919627,1722.5279164141796,1684.168610660308,1492.3685464058958,1129.92405337146,671.862367014248,166.97813077759412,0.0,0.0,0.0,0.0,0.0,0.0,0.0,0.0,0.0,0.0,0.0,0.0,0.0,0.0,410.9584189643725,943.2016527535856,1328.2110256054848,1225.260529180838,1360.0834233797432,1236.8243936999777,1116.103842289976,890.4571654063807,528.2948040793638,127.77242990146458,0.0,0.0,0.0,0.0,0.0,0.0,0.0,0.0,0.0,0.0,0.0,0.0,0.0,0.0,171.20939929187395,405.5993307174261,735.0428991479263,936.9968764813924,1073.5125609248137,985.2286707039092,582.7320816710852,474.4217899024812,267.6729877369077,43.71910109782875,0.0,0.0,0.0,0.0,0.0,0.0,0.0,0.0,0.0,0.0,0.0,0.0,0.0,0.0,90.25881217284036,242.28749794226204,1125.4113602467717,1402.956836452325,1620.4231080147797,1607.4485849585433,1435.9570539592498,1121.180798829503,653.5280486140539,165.28604763008883,0.0,0.0,0.0,0.0,0.0,0.0,0.0,0.0,0.0,0.0,0.0,0.0,0.0,0.0,373.7269329431677,868.4565490037565,1224.9776903764075,1035.9989431961894,1217.6443872745365,1585.4479685559193,958.151097761758,437.7538601991041,245.10810791944485,44.28336451266754,0.0,0.0,0.0,0.0,0.0,0.0,0.0,0.0,0.0,0.0,0.0,0.0,0.0,0.0,386.41932429198494,929.381441672102,1356.6992570847328,1653.4240326187162,1716.3231401419862,1672.321907336738,1485.035243304025,1168.5661979297615,684.2726266556459,178.26057068632554,0.0,0.0,0.0,0.0,0.0,0.0,0.0,0.0,0.0,0.0,0.0,0.0,0.0,0.0,421.9587271656845,950.5356629524678,1375.315000095335,1628.8849379463286,1730.4254829308893,1686.989220637491,1514.0870311011006,1185.4898577928589,696.4014616866356,183.90179064069127,0.0,0.0,0.0,0.0,0.0,0.0,0.0,0.0,0.0,0.0,0.0,0.0,0.0,0.0,445.0878703979861,997.9210620527264,1399.5719630603032,1638.7567193179627,1795.2995124060951,1749.323357648911,1554.703390514327,1189.1568628922998,731.6587328529158,200.54331879636905,0.0,0.0,0.0,0.0,0.0,0.0,0.0,0.0,0.0,0.0,0.0,0.0,0.0,0.0,436.908172173857,974.5104942100164,1362.6219016495068,1595.601881634973,1682.757952123211,1632.2698113383503,1455.137060384691,1147.4119766493957,695.2729348569579,187.00453232529352,0.0,0.0,0.0,0.0,0.0,0.0,0.0,0.0,0.0,0.0,0.0,0.0,0.0,0.0,112.54085318587272,281.776037622822,426.753551997792,243.698156479359,706.5553747656894,188.4144837653794,196.59418198950857,2.820609977182857,0.0,0.0,0.0,0.0,0.0,0.0,0.0,0.0,0.0,0.0,0.0,0.0,0.0,0.0,0.0,0.0,103.79759864391586,304.9044737581126,861.6875093167243,920.3546412287034,1737.4773614223518,1699.9637436937276,803.3010949181427,696.9650180044633,405.31719901000673,89.97668046542096,0.0,0.0,0.0,0.0,0.0,0.0,0.0,0.0,0.0,0.0,0.0,0.0,0.0,0.0,117.33638511499136,304.3409174402849,353.7005313954682,880.3032523273268,1857.3522248071067,1826.0440904476875,1629.731333068587,1286.4668464595918,776.2235219759916,220.00545692922964,0.0,0.0,0.0,0.0,0.0,0.0,0.0,0.0,0.0,0.0,0.0,0.0,0.0,0.0,465.39569655609387,1024.7165032874582,1428.05948744254,1669.7834290669746,1770.4782860262883,1727.6055800507177,1547.370087412456,1226.670480620924,768.3259554592818,225.08241346875656,0.0,0.0,0.0,0.0,0.0,0.0,0.0,0.0,0.0,0.0,0.0,0.0,0.0,0.0,443.3950801534697,979.305319042124,1362.3397699420873,1596.7304084646505,1692.911865202265,1646.654285834673,1478.5483353244124,1179.848637838493,737.5813774176897,217.46697865946612,0.0,0.0,0.0,0.0,0.0,0.0,0.0,0.0,0.0,0.0,0.0,0.0,0.0,0.0,294.18629726421995,674.4008452840114,777.352048805669,1153.8995917260197,1291.825934706538,1237.9522134326444,1127.103443394277,828.9687164202077,507.7041391168256,144.97751437497007,0.0,0.0,0.0,0.0,0.0,0.0,0.0,0.0,0.0,0.0,0.0,0.0,0.0,0.0,349.75210168561887,817.1220130966375,791.7365233019917,1470.6507688077024,1551.6013559267362,1125.693491954191,156.2599542837015,1094.3853575947712,646.4768772196023,181.9275757857666,0.0,0.0,0.0,0.0,0.0,0.0,0.0,0.0,0.0,0.0,0.0,0.0,0.0,0.0,99.00206671479724,159.36269596830374,240.3132830873373,371.4705863808236,293.34060923897283,203.64606048097124,206.4666704581541,80.10419199677541,41.18062282806528,0.8463951222581799,0.0,0.0,0.0,0.0,0.0,0.0,0.0,0.0,0.0,0.0,0.0,0.0,0.0,0.0,465.9599599709327,1015.4089853306624,1413.6750129462175,1659.91164769534,1760.323665850223,1721.1179649740934,1557.241868784091,1251.49099990372,770.3001703142064,243.98028818677835,0.0,0.0,0.0,0.0,0.0,0.0,0.0,0.0,0.0,0.0,0.0,0.0,0.0,0.0,442.5486850312116,978.458923919866,1369.1095167261306,1603.7815798591023,1701.9379585486522,1666.9628190897918,1501.112508044864,963.5101860087044,641.117788972656,242.28749794226204,0.0,0.0,0.0,0.0,0.0,0.0,0.0,0.0,0.0,0.0,0.0,0.0,0.0,0.0,138.20847468793784,423.9329420206092,721.7862443842702,730.5302060232382,939.8174864585752,887.6365554291978,801.3268800632178,576.5265983018808,353.7005313954682,101.54054498456073,0.0,0.0,0.0,0.0,0.0,0.0,0.0,0.0,0.0,0.0,0.0,0.0,0.0,0.0,465.6778282635133,1023.5886835547916,1450.624367260003,1699.399480278889,1804.324898655471,1773.0167642960516,1592.4991399503708,1283.646236482409,799.3526652082932,266.82659261464954,0.0,0.0,0.0,0.0,0.0,0.0,0.0,0.0,0.0,0.0,0.0,0.0,0.0,0.0,467.3699114110186,996.5111106126408,1382.3668785867978,1619.8588445999414,1716.6052718494054,1690.0912552250825,1530.446427549359,1238.7986085549028,799.0705335008737,271.9042562511875,0.0,0.0,0.0,0.0,0.0,0.0,0.0,0.0,0.0,0.0,0.0,0.0,0.0,0.0,463.98574511600793,402.4965890328239,944.048047875844,1173.0788910544495,1338.647070391958,1311.2873657423877,1129.6426287610514,323.520216768715,233.8263751077245,154.2857394287768,0.0,0.0,0.0,0.0,0.0,0.0,0.0,0.0,0.0,0.0,0.0,0.0,0.0,0.0,0.0,358.4960633245869,966.6122205962956,1355.5707302550552,1766.2470175120086,1764.8370660719224,1617.0382346227584,1314.954370841829,829.8144044454547,291.9299507018759,0.0,0.0,0.0,0.0,0.0,0.0,0.0,0.0,0.0,0.0,0.0,0.0,0.0,0.0,335.0847883848658,893.5599070909828,1336.6728555370337,1785.4270239374498,1508.727942854155,1696.014606886867,1664.988604234867,1293.235886146624,499.8065726001159,243.13389306452015,0.0,0.0,0.0,0.0,0.0,0.0,0.0,0.0,0.0,0.0,0.0,0.0,0.0,0.0,246.5187664565418,327.18722186815603,246.5187664565418,371.4705863808236,245.95450304170305,1026.9735569468132,935.304793333887,678.9135384086997,235.8005899626492,32.436661189097315,0.0,0.0,0.0,0.0,0.0,0.0,0.0,0.0,0.0,0.0,0.0,0.0,0.0,0.0,18.333611303183037,118.46420484765784,185.3124491777882,663.11840537528,798.2241383786155,371.752718088243,538.4487171584176,234.6720631329716,142.4390361052066,268.23725115174653,0.0,0.0,0.0,0.0,0.0,0.0,0.0,0.0,0.0,0.0,0.0,0.0,0.0,0.0,116.77212170015255,111.13090174578684,430.984820512072,844.1995860387884,774.2493071210669,968.5871425482314,1058.5638230136524,1276.5943579909465,825.3017113207668,296.1612192161557,0.0,0.0,0.0,0.0,0.0,0.0,0.0,0.0,0.0,0.0,0.0,0.0,0.0,0.0,93.64297846785092,237.77480481757385,444.8057386905668,1656.5267743033187,621.6563579368064,618.2714845447848,701.7605499335818,528.0126723719444,12.97452305623671,275.2884225461981,0.0,0.0,0.0,0.0,0.0,0.0,0.0,0.0,0.0,0.0,0.0,0.0,0.0,0.0,149.77304630408867,665.6568836450434,1438.7776639364329,1717.4516669716638,1813.0688602944392,1804.324898655471,1639.6031144402211,1334.6986406821086,863.9438558790685,325.7772704280701,0.0,0.0,0.0,0.0,0.0,0.0,0.0,0.0,0.0,0.0,0.0,0.0,0.0,47.6675308076781,549.1668936523103,1096.0774407422766,1501.6767714597029,1739.4515762772764,1839.017906406913,1800.6586006530413,1637.0646361704578,1338.0828069771192,893.5599070909828,342.41809148673684,0.0,0.0,0.0,0.0,0.0,0.0,0.0,0.0,0.0,0.0,0.0,0.0,0.0,48.513925929936285,529.4226238120303,1056.3074764513085,1437.367712496347,1669.7834290669746,1769.3497591966106,1742.5543179618792,1638.7567193179627,1298.5949743935705,862.251065634552,331.98204670026354,0.0,0.0,0.0,0.0,0.0,0.0,0.0,0.0,0.0,0.0,0.0,0.0,0.0,61.2063172787536,556.5001967541814,1096.359572449696,1526.2158661320905,1710.96405189504,1804.6070303628908,1516.0619530530366,1437.6498442037664,1102.0007924040617,870.148632151262,187.85092744755173,0.0,0.0,0.0,0.0,0.0,0.0,0.0,0.0,0.0,0.0,0.0,0.0,0.0,1.1285268296775737,309.1357422723924,707.6831944983559,1000.1774086150704,1138.6680150104278,1344.0061586389045,1422.4189745851857,946.0222627307684,832.0707510077988,589.7832530655369,199.97905538153023,0.0,0.0,0.0,0.0,0.0,0.0,0.0,0.0,0.0,0.0,0.0,0.0,0.0,13.538786471075497,498.11448945261066,998.7674571749848,1399.571255963292,1643.83367585749,1745.3749279390618,1718.57948670433,1567.114357252736,1266.7225766193117,810.6343980200135,313.36630368966115,0.0,0.0,0.0,0.0,0.0,0.0,0.0,0.0,0.0,0.0,0.0,0.0,0.0,0.0,74.18154743200138,105.20755008400174,333.67483694477994,466.8056479961798,497.8323577451913,602.7577761217735,383.8808460222215,333.1105735299411,354.54692651772643,131.72085961131395,0.0,0.0,0.0,0.0,0.0,0.0,0.0,0.0,0.0,0.0,0.0,0.0,0.0,0.0,8.179698224129178,363.8551515715332,647.3232723418605,837.9941026695839,1267.2868400341506,1448.0858889902397,1133.0267950560622,1401.546177915228,528.8590674942026,181.0811806635084,0.0,0.0,0.0,0.0,0.0,0.0,0.0,0.0,0.0,0.0,0.0,0.0,0.0,59.51423413124832,184.74818576294945,398.2660276155552,702.0426816410013,971.6898842328336,1879.3528412097307,1814.4795188315363,1653.1419009112965,1358.6734719396572,916.6883432262736,369.7777961363072,0.0,0.0,0.0,0.0,0.0,0.0,0.0,0.0,0.0,0.0,0.0,0.0,0.0,76.15576228692606,564.9620266857299,1092.6925673502549,1470.932900515122,1701.9379585486522,1784.0170724973636,1748.7598013310835,1599.268886734414,1313.825844012151,887.6365554291978,359.9060147646728,0.0,0.0,0.0,0.0,0.0,0.0,0.0,0.0,0.0,0.0,0.0,0.0,0.0,69.38601550288277,214.9285003897027,899.2011270453486,1086.7699227854807,1680.7837372682866,1769.067627489191,1737.7594931297715,1586.576495385597,1302.2619794930113,881.148940352574,342.1366668763285,0.0,0.0,0.0,0.0,0.0,0.0,0.0,0.0,0.0,0.0,0.0,0.0,0.0,30.744578041592032,114.2336434303891,562.1414167085471,528.8590674942026,730.2480743158187,1002.4344622744256,817.4041448040568,1042.768689980233,513.9096224860301,160.2090910905619,0.2821317074193933,0.0,0.0,0.0,0.0,0.0,0.0,0.0,0.0,0.0,0.0,0.0,0.0,0.0,0.0,14.66731330075307,7.333303101870998,88.2838902209046,572.5774614950203,397.41963249329694,916.9704749336928,994.8190274651352,658.6057122505919,72.20662548006564,338.46966177688745,0.0,0.0,0.0,0.0,0.0,0.0,0.0,0.0,0.0,0.0,0.0,0.0,0.0,101.82267669198008,638.0150472880537,1207.772605902902,1617.8846297450164,1873.4294895479456,1966.7903363083772,1860.1728347842893,1699.6816119863086,1399.5719630603032,960.6895760315216,406.16359413226496,0.0,0.0,0.0,0.0,0.0,0.0,0.0,0.0,0.0,0.0,0.0,0.0,0.0,107.7460283537652,625.6047876466558,1150.2325866265785,1524.8059146920043,1752.1446747231048,1842.9670432137727,1804.6070303628908,1646.3728612242644,1359.5198670619156,930.5092614047684,391.77841253893126,0.0,0.0,0.0,0.0,0.0,0.0,0.0,0.0,0.0,0.0,0.0,0.0,0.0,71.64306916223792,566.3726852228268,888.4829505514559,1227.2347440357628,1488.702248403466,1489.5486435257242,1490.112199843552,893.2777753835635,625.8869193540752,858.0205042172834,375.9832795055116,0.0,0.0,0.0,0.0,0.0,0.0,0.0,0.0,0.0,0.0,0.0,0.0,0.0,40.89849112064589,348.34144314852193,782.7104299556042,934.4583982116288,1138.6680150104278,1111.3083103608574,1371.3658632884749,1019.3574150405116,514.7560176082884,161.05477911580903,159.64482767572312,0.0,0.0,0.0,0.0,0.0,0.0,0.0,0.0,0.0,0.0,0.0,0.0,0.0,87.4382021956575,428.7284739497278,577.6551251315583,957.0225709320806,1329.057420727743,1310.7231023275488,1206.079815658386,1044.1786414203186,1009.7677653762968,586.1162479660958,135.95212812559376,0.0,0.0,0.0,0.0,0.0,0.0,0.0,0.0,0.0,0.0,0.0,0.0,0.0,46.5397110750116,258.08333807269264,680.3241969457965,702.0426816410013,878.6104620828104,1069.281292410534,1241.6192185320856,1096.0774407422766,970.8434891105754,704.016896495926,218.59479839213265,0.0,0.0,0.0,0.0,0.0,0.0,0.0,0.0,0.0,0.0,0.0,0.0,0.0,125.79821504653992,635.7587007257097,1140.0786735475249,1501.112508044864,1704.7585685258352,1845.2233897761173,1791.0682438918152,1611.3970146683928,1299.4413695158285,850.1229377005734,369.2142398184795,0.0,0.0,0.0,0.0,0.0,0.0,0.0,0.0,0.0,0.0,0.0,0.0,0.0,137.64421127309905,681.1698849710436,1228.6446954758487,1623.807981406802,1865.531923031236,1958.610638084248,1920.2506252333656,1574.7297920620265,1445.8295424278956,917.8168700559512,440.574470176287,0.0,0.0,0.0,0.0,0.0,0.0,0.0,0.0,0.0,0.0,0.0,0.0,0.0,133.977206173658,622.7841776694729,1062.7943844309211,1626.6285913839845,1842.9670432137727,1921.379152063043,1866.377611056483,1664.7064725274474,1294.927969294129,862.251065634552,370.6241912585654,0.0,0.0,0.0,0.0,0.0,0.0,0.0,0.0,0.0,0.0,0.0,0.0,0.0,142.4390361052066,63.74479554851707,1245.2862236315264,545.4998885528694,667.9132302073876,921.2017434479728,1970.4573414078184,1758.3501580923096,1450.624367260003,974.2283625025972,438.8823870287816,0.0,0.0,0.0,0.0,0.0,0.0,0.0,0.0,0.0,0.0,0.0,0.0,0.0,157.67061282079845,701.4784182261625,1219.0550458116336,1580.6531437238116,1800.6586006530413,1887.531832336849,1856.787961392268,1687.834908662738,1406.6231344547548,976.7668407723604,440.574470176287,0.0,0.0,0.0,0.0,0.0,0.0,0.0,0.0,0.0,0.0,0.0,0.0,0.0,167.2602624850135,741.5305142245501,1281.9534462378924,1677.1167321688454,1913.4815855463332,2004.3039540370012,1958.3285063768285,1786.2734190597075,1433.9828391043254,1003.8444137145116,459.7544766017282,23.41056784270996,0.0,0.0,0.0,0.0,0.0,0.0,0.0,0.0,0.0,0.0,0.0,0.0,169.2344773399382,723.4790346287866,1257.1322198580856,1626.3464596765652,1838.7364817965044,1850.300346315644,1812.222465172181,1646.3728612242644,1347.6731637383452,940.6631744838222,423.65081031318977,16.07726474083896,0.0,0.0,0.0,0.0,0.0,0.0,0.0,0.0,0.0,0.0,0.0,0.0,166.41386736275535,650.4260140264627,1231.747437160451,1608.012848373382,1820.9664268111487,1893.1730522912144,1867.78826959358,1618.4488931598555,1332.160162412345,922.0474314732198,413.49689723413593,14.385181593333678,0.0,0.0,0.0,0.0,0.0,0.0,0.0,0.0,0.0,0.0,0.0,0.0,174.59356558688452,714.4529412823991,1225.2598220838272,1600.1152818566725,1818.992211956224,1915.4558004012576,1882.737007504741,1718.57948670433,1430.3158340048842,966.3307959858872,440.574470176287,25.385489794645714,0.0,0.0,0.0,0.0,0.0,0.0,0.0,0.0,0.0,0.0,0.0,0.0,158.79843255346495,614.0402160305049,1224.9776903764075,1425.2388774653573,1799.2479421159442,1868.0704013009995,1823.5049050809123,1657.6545940359847,1356.4171253773134,694.7086714421191,423.9329420206092,21.436352987785284,0.0,0.0,0.0,0.0,0.0,0.0,0.0,0.0,0.0,0.0,0.0,0.0,177.69630727148677,694.9908031495386,941.7917013135,1090.1540890804915,1158.1301531432885,1696.8610020091255,1833.9409498673856,1131.6168436159762,1338.647070391958,908.2265132947248,419.13811718850167,19.18000642544121,0.0,0.0,0.0,0.0,0.0,0.0,0.0,0.0,0.0,0.0,0.0,0.0,151.46512945159392,543.5256736979446,1048.127778227179,1558.9346590286073,1787.4012387923742,1424.956745757938,1558.0882639063489,1346.5446369086676,1223.849870643741,888.4829505514559,425.0614688502867,23.974831257548743,0.0,0.0,0.0,0.0,0.0,0.0,0.0,0.0,0.0,0.0,0.0,0.0,132.56725473357213,473.29326307280365,474.7039216099006,269.92933429925176,726.8632009237971,985.792934118748,1833.0952618421384,1668.655609334308,1386.0331765892277,967.1771911081456,434.9332502219213,31.308134359419743,0.0,0.0,0.0,0.0,0.0,0.0,0.0,0.0,0.0,0.0,0.0,0.0,205.05601192105715,744.351124201733,1242.4656136543435,1204.6698642183,1813.350992001859,1879.9171046245697,1851.4288731453216,1694.8867871542009,1411.4179592868625,990.5877589508556,452.7033052072765,36.94935431378546,0.0,0.0,0.0,0.0,0.0,0.0,0.0,0.0,0.0,0.0,0.0,0.0,214.0821052674445,742.6590410542277,1217.6443872745365,1551.8827805371443,1800.0943372382026,1884.4297977492577,1834.223081574805,1456.547718921788,1393.648611398518,949.9713995376288,451.5747783775989,36.66722260636607,0.0,0.0,0.0,0.0,0.0,0.0,0.0,0.0,0.0,0.0,0.0,0.0,211.26149529026168,728.8381228757329,1065.614994408104,1154.1810163364278,1479.958286764498,1649.757734616286,1474.8813302249712,1434.264970811745,1223.849870643741,601.3478246816876,288.2629456024348,14.385181593333678,0.0,0.0,0.0,0.0,0.0,0.0,0.0,0.0,0.0,0.0,0.0,0.0,29.333919504495064,122.41334165451828,193.49144030490632,364.7008395967803,195.4663622568421,129.74664475638926,445.0878703979861,616.5786943002684,46.821842782431,348.9057065633607,165.56817933750824,0.2821317074193933,0.0,0.0,0.0,0.0,0.0,0.0,0.0,0.0,0.0,0.0,0.0,0.0,116.77212170015255,363.2908881566945,581.3214231339882,544.6542005276222,815.1477982417127,663.11840537528,623.6305727917311,680.8877532636242,656.0672339808284,202.5175336512937,93.64297846785092,0.0,0.0,0.0,0.0,0.0,0.0,0.0,0.0,0.0,0.0,0.0,0.0,0.0,34.693007751441385,146.9524363269058,548.6026302374715,794.5578403761858,1341.1862557587326,1840.710696651429,1486.445901841122,1444.701015598218,1351.058037130367,589.7832530655369,283.1859890629079,16.923659863097143,0.0,0.0,0.0,0.0,0.0,0.0,0.0,0.0,0.0,0.0,0.0,0.0,250.74932787381056,272.18568086159587,836.0198878146592,1326.23681075056,1884.4297977492577,1961.7133797688505,1941.123421903323,1792.1967707214924,1498.5740297751004,550.0132887745685,277.54476910854214,22.84701152488225,0.0,0.0,0.0,0.0,0.0,0.0,0.0,0.0,0.0,0.0,0.0,0.0,298.98182919333857,905.1237716101226,1433.700707396906,1810.248250317256,2017.842740508077,2088.6394145480567,2052.8178799669377,1861.0185228095368,1542.857394287768,1084.7950008335451,507.7041391168256,55.28367271397956,0.0,0.0,0.0,0.0,0.0,0.0,0.0,0.0,0.0,0.0,0.0,0.0,295.31482409389747,872.6871104210253,1363.1868721613566,1697.9895288388032,1883.583402627,1935.2000702415385,1920.8148886482045,1731.5540097605667,1428.3416191499596,1007.2292871065332,489.3705278136425,52.7451944442161,0.0,0.0,0.0,0.0,0.0,0.0,0.0,0.0,0.0,0.0,0.0,0.0,291.6478189944565,848.1487228456489,1319.749195673936,1713.2196913603725,1914.609405279,1058.281691306233,1961.1491163540115,1779.5043793726757,1486.7280335485414,1022.1780250176944,500.9350994297934,62.89910752326996,0.0,0.0,0.0,0.0,0.0,0.0,0.0,0.0,0.0,0.0,0.0,0.0,287.41725757718774,833.1992778374764,1311.2873657423877,1650.039159226695,886.5080285995203,1509.2922062689934,1536.934042625983,1156.1559382883638,738.4277725399479,574.5523834469561,283.4681207703273,26.795441234731605,0.0,0.0,0.0,0.0,0.0,0.0,0.0,0.0,0.0,0.0,0.0,0.0,31.87239777425853,70.51454233256035,77.28358201959256,261.7496360751226,581.885686548827,797.9420066711963,1026.4092935319743,809.7887099947666,801.3268800632178,379.93241631237214,190.6715374247345,12.128835030989608,0.0,0.0,0.0,0.0,0.0,0.0,0.0,0.0,0.0,0.0,0.0,0.0,12.410259641397923,53.308750762043815,199.6969236741108,309.9821373946506,320.9817384989516,342.98306199858666,235.8005899626492,266.26303629682184,229.3129748860253,125.23395163170116,57.82215098374303,0.0,0.0,0.0,0.0,0.0,0.0,0.0,0.0,0.0,0.0,0.0,0.0,0.0,5.359088246946321,5.076956539526927,89.41241705058218,150.61873432933578,267.1087243220689,191.79935715740103,229.03084317860592,137.64421127309905,280.92964250056383,232.69784827804693,112.54085318587272,2.820609977182857,0.0,0.0,0.0,0.0,0.0,0.0,0.0,0.0,0.0,0.0,0.0,0.0,305.46873717295136,833.4814095448959,1283.3641047749895,1598.7046233195751,1003.8444137145116,869.0208124185954,1164.6177682199125,914.9962600787682,1448.0851818932283,476.9602681722448,492.1911377908255,66.0018492078722,0.0,0.0,0.0,0.0,0.0,0.0,0.0,0.0,0.0,0.0,0.0,0.0,84.89972392589404,416.8817706261576,837.9941026695839,960.6888689345104,838.5583660844227,914.7141283713488,1075.20535116933,922.893826595478,1237.670788822236,708.529589620614,363.2908881566945,50.48814078486096,0.0,0.0,0.0,0.0,0.0,0.0,0.0,0.0,0.0,0.0,0.0,0.0,338.46966177688745,883.6874186223373,1208.6182939281491,1416.7777546308198,1655.6803791810603,1732.6825365902444,1663.5779456977698,1513.8056064906923,1235.6958668703005,727.7095960460554,370.6241912585654,54.15514588430199,0.0,0.0,0.0,0.0,0.0,0.0,0.0,0.0,0.0,0.0,0.0,0.0,327.46935357557544,759.0184375024861,958.4332294691776,1078.3073857569211,1131.0525802011373,1257.9786149803438,1520.0103827628857,1291.2616712916993,745.7610756418189,411.8048140866307,204.4917485062184,21.71848469520468,0.0,0.0,0.0,0.0,0.0,0.0,0.0,0.0,0.0,0.0,0.0,0.0,161.61904253064782,393.18907107602826,622.2199142546342,1670.6298241892323,1846.351916605795,1927.584635432248,1874.839440988032,1720.8358332666742,1432.29075595682,986.9207538514146,236.08272167006857,69.38601550288277,0.0,0.0,0.0,0.0,0.0,0.0,0.0,0.0,0.0,0.0,0.0,0.0,339.8796132169733,848.7122791634766,786.6595667624648,1097.4880992793735,1408.3159246992711,1843.531306628612,1784.5806288151914,1627.1928547988232,1359.2377353544962,966.6129276933068,281.4939059154026,40.3342277058071,0.0,0.0,0.0,0.0,0.0,0.0,0.0,0.0,0.0,0.0,0.0,0.0,57.82215098374303,293.6220338493811,512.7810956563526,558.7565433165254,823.0446576614115,1187.4640726477835,1301.415584370753,1263.33770322729,1432.29075595682,673.8365818691726,219.1590618069715,28.76965608965628,0.0,0.0,0.0,0.0,0.0,0.0,0.0,0.0,0.0,0.0,0.0,0.0,380.4959726301999,953.0741412222312,1435.6756293488418,1771.3246811485462,1965.3803848682912,2040.40762032554,1986.8167378560768,1810.248250317256,1513.5234747832728,1078.3073857569211,536.7566340109125,80.10419199677541,0.0,0.0,0.0,0.0,0.0,0.0,0.0,0.0,0.0,0.0,0.0,3.9491368068604302,388.675670854329,926.8422563053272,1392.5207916658517,1671.1940876040717,1865.2497913238165,1937.456416803882,1956.636423229324,1719.425881826588,1432.0086242494006,1021.050205285028,520.1151058552346,82.92480197395828,0.0,0.0,0.0,0.0,0.0,0.0,0.0,0.0,0.0,0.0,0.0,14.385181593333678,407.0099892545231,955.048356077156,1412.2643544091206,1731.2725851501582,1905.866150737043,1959.174901499087,1912.353058716656,1753.2724944557715,1475.4455936398097,1057.4352961839747,543.2435419905253,88.2838902209046,0.0,0.0,0.0,0.0,0.0,0.0,0.0,0.0,0.0,0.0,0.0,10.436044786473248,351.16205312570474,677.7857186760331,1023.0244201399528,1150.2325866265785,1430.880097419723,1228.9268271832682,1613.0890978158982,875.5077203982082,915.2783917861876,999.6138522972428,489.9347912284813,79.82206028935603,0.0,0.0,0.0,0.0,0.0,0.0,0.0,0.0,0.0,0.0,0.0,0.0,324.930875305812,501.4993628446322,466.5242233857714,515.6017056335354,818.8140962441428,1067.871340970448,636.3229641405484,596.55299984958,612.9116892008274,380.4959726301999,115.3614631630556,47.10397448985039,0.0,0.0,0.0,0.0,0.0,0.0,0.0,0.0,0.0,0.0,0.0,0.0,130.31090817122805,389.5220659765872,369.2142398184795,1761.170060972481,2003.1761343043352,2090.895761110401,1984.5603912937324,1822.3763782512349,1527.907949279596,1092.4104356428354,540.140800305923,88.56602192832399,0.0,0.0,0.0,0.0,0.0,0.0,0.0,0.0,0.0,0.0,0.0,31.87239777425853,449.318431815255,1035.4346797813507,1548.2164825347145,1895.9943693654088,2101.050381286466,2165.0773085424025,2095.6905859425083,1899.3785356604196,1540.8831794328432,814.8656665342935,445.6514267158139,95.33576871236728,0.0,0.0,0.0,0.0,0.0,0.0,0.0,0.0,0.0,0.0,0.0,33.2830563113555,450.7283832553408,1017.6653318930064,1495.18986348009,1818.4279485413856,2008.2530908438616,2069.177276415196,2006.278875988937,1827.1719101803535,1523.3952561549074,1061.102301283416,551.141108507235,97.87424698213071,0.0,0.0,0.0,0.0,0.0,0.0,0.0,0.0,0.0,0.0,0.0,39.20640797314061,463.4214817011692,1022.7422884325332,1468.3937151483472,1772.1703691737937,1943.3797684656672,1995.2785677876248,1932.661591971775,1764.5549343645032,1485.035243304025,1067.0256529452008,551.9875036294933,95.33576871236728,0.0,0.0,0.0,0.0,0.0,0.0,0.0,0.0,0.0,0.0,0.0,42.02631085331239,454.9596517696206,1007.5114188139526,1465.0095488533366,1774.1452911257288,1707.2970467955986,2026.586702147045,1971.0216048226569,1804.324898655471,1513.8056064906923,1057.1531644765553,548.3204985300522,96.46358844503378,0.0,0.0,0.0,0.0,0.0,0.0,0.0,0.0,0.0,0.0,0.0,44.56549622008693,440.574470176287,971.4077525254144,995.382583782963,893.2777753835635,1004.9729405441892,451.8569100850184,1409.7258761393573,1758.9137144101371,1450.9064989674223,1029.5120352165768,517.0123641706324,98.15637868955014,0.0,0.0,0.0,0.0,0.0,0.0,0.0,0.0,0.0,0.0,0.0,43.15483768298996,427.5999471200503,616.5786943002684,1101.7186606966422,1703.6307487931688,1465.0095488533366,1959.457033206506,1898.532140538161,1744.8106645242228,1472.6249836626273,1065.3328627006845,543.5256736979446,99.56633012963604,0.0,0.0,0.0,0.0,0.0,0.0,0.0,0.0,0.0,0.0,0.0,50.20600907744156,435.2153819293407,936.150481359134,1114.9753154602984,1356.134993669894,595.4244730199025,1281.6713145304734,1621.269503137038,1358.1092085248188,790.3265718619058,512.7810956563526,239.74901967249852,91.66876361292624,0.0,0.0,0.0,0.0,0.0,0.0,0.0,0.0,0.0,0.0,0.0,42.02631085331239,73.89941572458198,297.0069072414028,386.41932429198494,477.8059561974918,909.0729084169832,1347.391032030926,799.6340898187015,752.5308224258621,454.3953883547818,379.93241631237214,229.03084317860592,99.56633012963604,0.0,0.0,0.0,0.0,0.0,0.0,0.0,0.0,0.0,0.0,0.0,27.077572942150997,155.41426625845438,997.9210620527264,1061.3844329908352,1263.055571519871,1340.3398606364744,1264.1840983495483,1422.7003991955935,1270.6710063291612,1189.438287502708,823.6096281732614,530.8332823491272,108.0281600611846,0.0,0.0,0.0,0.0,0.0,0.0,0.0,0.0,0.0,0.0,0.0,2.820609977182857,26.23117781989282,106.6182086210987,164.43965250783066,170.36300416961575,271.9042562511875,335.6490517997046,782.7111370526153,689.6317149025922,522.6535841249981,338.18753006946804,96.74572015245316,0.0,0.0,0.0,0.0,0.0,0.0,0.0,0.0,0.0,0.0,0.0,0.0,68.25819577021629,498.9608845748688,1043.8965097128994,1454.0092406520246,1740.580103106954,1911.788795301817,1965.662516575711,1908.6867607142256,1755.810972725535,1474.3170668101322,1071.8204777773085,568.0647683703321,110.00237491610928,0.0,0.0,0.0,0.0,0.0,0.0,0.0,0.0,0.0,0.0,0.0,74.18154743200138,499.24230918527707,1012.30624364606,1424.3924823430991,1711.809739920287,1560.0624787612733,1950.7130715675385,1876.531524135537,1721.6822283889326,1438.7776639364329,323.2387921583067,559.6029384387837,114.51577513780848,0.0,0.0,0.0,0.0,0.0,0.0,0.0,0.0,0.0,0.0,0.0,76.15576228692606,515.8838373409549,1075.7689074871578,1532.702774111703,1848.8903948755585,2031.3815269791528,2083.2803263011106,1784.5806288151914,1412.8286178239591,1558.6525273211876,1114.9753154602984,482.6014881266104,114.79790684522789,0.0,0.0,0.0,0.0,0.0,0.0,0.0,0.0,0.0,0.0,0.0,80.10419199677541,520.1151058552346,1074.3589560470718,1527.344392961768,1842.4027797989345,2027.997360684142,2082.433931178852,2028.5609170019695,1852.838824585408,1553.5755707816604,1122.5907502695889,357.6496682023287,117.05425340757196,0.0,0.0,0.0,0.0,0.0,0.0,0.0,0.0,0.0,0.0,0.0,83.48906538879706,522.0893207101593,1036.5632066110284,1499.4204248973588,1807.4276403400731,1985.40607931898,2036.740615226099,1979.764859364614,1801.786420385708,1018.2295953078452,1064.2050429680182,562.7056801233858,125.23395163170116,0.0,0.0,0.0,0.0,0.0,0.0,0.0,0.0,0.0,0.0,0.0,88.0017585134852,525.4741941021811,1039.94808000305,1453.727108944605,1738.0416248371907,1899.9427990752577,1945.6361150280115,1695.732475179448,1743.400713084137,1459.3683288989712,1067.5892092630286,580.7571597191495,128.054561608884,0.0,0.0,0.0,0.0,0.0,0.0,0.0,0.0,0.0,0.0,0.0,89.97668046542096,537.0387657183318,1051.51194452219,1500.8303763374445,1797.8379906758585,1965.098253160872,2024.61248729212,1970.175209700399,1373.6222098508188,1523.677387862327,1102.2829241114812,579.9114716939023,125.51608333912051,0.0,0.0,0.0,0.0,0.0,0.0,0.0,0.0,0.0,0.0,0.0,47.3853991002587,198.2869722340249,640.2713938503979,1094.948913912599,1378.4177417799374,1471.2143251255302,1548.2164825347145,1846.6340483132144,1681.6301323905443,1408.879481017099,1023.5886835547916,546.9105470899663,122.41334165451828,0.0,0.0,0.0,0.0,0.0,0.0,0.0,0.0,0.0,0.0,0.0,91.66876361292624,356.5211413726511,772.8386485839699,1056.871032769136,1002.7158868848342,1735.221014860008,888.7650822588754,1683.32221553805,1087.8977425181474,999.6138522972428,583.5777696963323,304.0587857328655,97.87424698213071,0.0,0.0,0.0,0.0,0.0,0.0,0.0,0.0,0.0,0.0,0.0,27.359704649570386,176.0042241239815,838.5583660844227,619.9635676922901,1208.33616222073,1404.9310513072496,1432.5728876642393,688.785319780334,675.8107967240974,676.9393235537749,489.0883961062232,278.3911642308003,82.92480197395828,0.0,0.0,0.0,0.0,0.0,0.0,0.0,0.0,0.0,0.0,0.0,97.59211527471136,257.80120636527323,743.7868607868942,1032.3326451937596,683.4262315333877,1555.2676539291658,1648.3470760791893,1275.1844065508603,1120.0522719998253,735.3250308553457,515.0381493157078,264.0059826374667,87.4382021956575,0.0,0.0,0.0,0.0,0.0,0.0,0.0,0.0,0.0,0.0,0.0,2.820609977182857,262.5960311973808,62.33484410843117,95.90003212720607,368.3678446962213,743.5047290794748,959.2796245914358,758.4534669906362,682.2984118007212,776.2235219759916,629.5532173565052,357.0854047874899,102.66907181423828,0.0,0.0,0.0,0.0,0.0,0.0,0.0,0.0,0.0,0.0,0.0,0.0,315.6226502520052,333.67483694477994,319.85391876628506,1257.9786149803438,1061.3844329908352,623.0663093768923,794.2757086687662,518.7044473181377,453.8311249399431,424.7793371428674,108.0281600611846,59.23210242382893,0.0,0.0,0.0,0.0,0.0,0.0,0.0,0.0,0.0,0.0,0.0,27.92396806440918,85.74541195114114,212.10789041251985,797.3777432563576,1805.4534254851487,1954.6622083743987,2010.5094374062064,1726.7591849284593,1809.4018551949985,1527.907949279596,1088.7441376404058,595.142341312483,135.1057330033356,0.0,0.0,0.0,0.0,0.0,0.0,0.0,0.0,0.0,0.0,0.0,109.43881859828154,569.4754269074291,1075.7689074871578,1466.4195002934223,1738.0409177401796,1892.327364265968,1932.097328556936,1868.3525330084187,1707.8613102104373,1436.5213173740888,1052.6404713518673,574.2702517395367,128.054561608884,0.0,0.0,0.0,0.0,0.0,0.0,0.0,0.0,0.0,0.0,0.0,108.87455518344278,562.9878118308052,1061.102301283416,1441.880405621035,1699.1173485714696,1846.6340483132144,1886.4040126041823,1836.7615598445684,1690.0912552250825,1431.1622291271426,1055.1789496216306,581.0392914265689,132.56725473357213,0.0,0.0,0.0,0.0,0.0,0.0,0.0,0.0,0.0,0.0,0.0,116.48998999273316,568.0647683703321,1071.8204777773085,1461.9068071687343,1732.400404882825,1883.583402627,1923.9176303328068,1949.86667644528,1716.0410084345667,1458.5219337767128,1078.3073857569211,594.295946190225,137.64421127309905,0.0,0.0,0.0,0.0,0.0,0.0,0.0,0.0,0.0,0.0,0.0,118.74633655507724,564.9620266857299,1057.7174278913942,1436.5213173740888,1707.579178503018,1853.403088000246,1891.4809691437088,1709.5533933579427,1683.6043472454694,1422.136135780755,1041.3580314431358,575.6802031796225,140.7469529577013,0.0,0.0,0.0,0.0,0.0,0.0,0.0,0.0,0.0,0.0,0.0,119.87486338475482,561.8592850011277,1020.4859418701892,1472.9071153700463,1745.0927962316423,1694.0403920319425,1957.4828183515813,1893.7373157060536,1728.733399783384,1464.1631537310786,1045.3071682499965,578.5008131568054,141.5933480799595,0.0,0.0,0.0,0.0,0.0,0.0,0.0,0.0,0.0,0.0,0.0,109.43881859828154,473.8575264876425,894.1241705058217,1277.722884820624,917.8168700559512,986.0750658261672,1697.9895288388032,1672.321907336738,1534.677696063639,1133.3089267634814,1030.0755915344046,506.5763193841592,144.69608976456172,0.0,0.0,0.0,0.0,0.0,0.0,0.0,0.0,0.0,0.0,0.0,132.8493864409915,502.6271825772988,830.9429312751323,1138.103751595589,1173.0788910544495,1424.6746140505186,1588.5507102405218,1507.599416024477,1202.1313859485367,696.6835933940549,504.8835291396428,361.5980979121781,104.36115496174357,0.0,0.0,0.0,0.0,0.0,0.0,0.0,0.0,0.0,0.0,0.0,31.308134359419743,361.5980979121781,670.451708477151,898.0726002156712,1276.030094576107,1349.9295103006891,1512.677079661015,1787.1198141819657,1618.166761452436,1365.724643334109,998.4853254675652,547.1926787973856,151.18299774417454,0.0,0.0,0.0,0.0,0.0,0.0,0.0,0.0,0.0,0.0,0.0,100.41272525189422,315.6226502520052,656.0672339808284,942.0738330209192,874.3799006655418,905.6880350249614,1353.0322519852916,1292.1073593169465,1462.188938876154,1179.848637838493,1013.1526387683184,563.552075245644,156.54208599112087,0.0,0.0,0.0,0.0,0.0,0.0,0.0,0.0,0.0,0.0,0.0,135.95212812559376,561.2957286833,1050.948388204362,1445.265279013057,1349.0838222754426,1814.1973871241169,1849.453951193386,1790.7861121843955,1633.679762778436,716.9914195521627,1026.6914252393938,566.9362415406546,154.8500028436156,0.0,0.0,0.0,0.0,0.0,0.0,0.0,0.0,0.0,0.0,0.0,132.00299131873334,556.2180650467619,1036.281074903609,851.8150208480788,1456.8298506292074,1868.9167964232572,1915.1736686938384,1789.6582924517295,1399.0076996454643,1099.462314134298,828.6865847127881,448.7541684004162,117.61851682241074,0.0,0.0,0.0,0.0,0.0,0.0,0.0,0.0,0.0,0.0,0.0,80.9505871190336,21.436352987785284,302.93025890318785,596.55299984958,1349.0838222754426,918.9446897886176,800.4804849409597,1234.003783722795,1248.3882582191177,650.1438823190433,440.2923384688676,313.9305671044999,163.59396448258357,0.0,0.0,0.0,0.0,0.0,0.0,0.0,0.0,0.0,0.0,0.0,146.9524363269058,628.9896610386775,1167.7198028075036,1579.524616894134,1861.300654516956,2019.2533990451736,2053.100011674357,1977.5085128022697,1807.709772047493,1525.6516027172515,1128.7962336387932,617.4250894225266,165.56817933750824,0.0,0.0,0.0,0.0,0.0,0.0,0.0,0.0,0.0,0.0,0.0,147.2345680343252,605.0141226841176,1087.3334791033085,1469.240110270605,1725.9127898062009,1869.762484448505,1907.840365591968,1862.1470496392144,1696.2967385942866,1444.136752183379,1067.3077846526205,603.6041712440317,165.00391592266945,0.0,0.0,0.0,0.0,0.0,0.0,0.0,0.0,0.0,0.0,0.0,83.48906538879706,595.7066047273219,1074.3589560470718,1453.7264018475942,1719.7080135340077,1866.9418744713216,1905.0197556147848,1340.903416954302,1707.8613102104373,1437.0855807889277,1062.7943844309211,597.3986878748273,162.74756936032537,0.0,0.0,0.0,0.0,0.0,0.0,0.0,0.0,0.0,0.0,0.0,146.9524363269058,576.5265983018808,1041.3580314431358,1408.879481017099,1663.860077405189,1805.7355571925684,1843.8134383360311,1595.038325317145,1664.424340820028,342.7002231941562,539.2951122806759,592.6038630427197,174.03000926905682,0.0,0.0,0.0,0.0,0.0,0.0,0.0,0.0,0.0,0.0,0.0,153.721476013938,471.31904821787896,1029.793459826985,1392.80221627626,1641.8601680995764,1784.0170724973636,1581.49953884607,1204.1056008034611,465.9599599709327,1254.593741588322,814.0192714120351,584.4241648185904,177.41417556406736,0.0,0.0,0.0,0.0,0.0,0.0,0.0,0.0,0.0,0.0,0.0,152.31152457385213,566.3726852228268,1026.4092935319743,1392.5200845688405,1648.3470760791893,1793.3245904541593,999.6138522972428,1811.0946454395144,1635.93610934078,1387.4431280293136,1026.6914252393938,499.8065726001159,173.18361414679862,0.0,0.0,0.0,0.0,0.0,0.0,0.0,0.0,0.0,0.0,0.0,150.33660262191637,577.6551251315583,1064.4871746754377,1448.368020697659,1713.7846618722224,1865.531923031236,1907.840365591968,1861.0185228095368,1704.476436818416,1439.9061907661105,1035.9989431961894,595.142341312483,174.59356558688452,0.0,0.0,0.0,0.0,0.0,0.0,0.0,0.0,0.0,0.0,0.0,152.02939286643274,571.1675100549344,1027.2549815572215,1433.700707396906,1711.2461836024593,1861.300654516956,1901.9170139301827,1847.479736338461,1689.8091235176628,1383.7768300268835,1022.7422884325332,589.7832530655369,176.0042241239815,0.0,0.0,0.0,0.0,0.0,0.0,0.0,0.0,0.0,0.0,0.0,94.77150529752848,552.2696353369125,936.150481359134,1255.4401367105802,1636.2182410481996,1649.475602908867,1509.5743379764126,1665.2700288452752,1410.8544029690347,1259.3892735174406,915.560523493607,580.47502801173,178.26057068632554,0.0,0.0,0.0,0.0,0.0,0.0,0.0,0.0,0.0,0.0,0.0,155.6956908688627,482.8836198340298,1010.8955851089632,1363.7504284791844,1607.166453251124,1742.2721862544597,1789.0940290368903,1742.8364496692982,961.8181028611992,1120.0522719998253,999.8952769076512,485.7035227142016,185.87600549561597,0.0,0.0,0.0,0.0,0.0,0.0,0.0,0.0,0.0,0.0,0.0,159.92695938314253,555.0902453140956,993.4083689280384,1347.391032030926,1597.2946718794894,1739.733707984696,1787.965502207213,1736.0667028852552,1584.601573433661,1169.4125930520197,926.2786999874996,443.67721186088914,168.1066576072717,0.0,0.0,0.0,0.0,0.0,0.0,0.0,0.0,0.0,0.0,0.0,137.36207956567966,566.0905535154074,888.2008188440366,1158.412284850708,1454.291372359444,1253.4652147586446,1306.49254091028,1391.392264836174,1238.516476847483,1226.670480620924,903.9959518774562,352.85484337022115,172.9014824393792,0.0,0.0,0.0,0.0,0.0,0.0,0.0,0.0,0.0,0.0,0.0,131.43872790389457,540.9871954281812,876.3541155204663,1194.5159511392462,1457.1119823366269,1577.5504020392093,1699.6816119863086,1587.1400517034244,1452.598582114928,1403.5203927701527,1049.2555979598455,611.2196060533222,173.46574585421803,0.0,0.0,0.0,0.0,0.0,0.0,0.0,0.0,0.0,0.0,0.0,144.41395805714237,442.83081673863103,877.4826423501439,1188.8747311848804,1384.3403863447113,1510.70286480609,1624.6543765290598,1521.9853047148215,1500.8303763374445,1232.8752568931177,813.172876289777,542.9614102831058,176.56848753882028,0.0,0.0,0.0,0.0,0.0,0.0,0.0,0.0,0.0,0.0,0.0,144.69608976456172,545.4998885528694,786.6595667624648,1162.924977975396,1314.1086828165814,1131.3347119085568,601.0656929742684,1092.6925673502549,1371.0844386780664,1102.5650558189006,862.251065634552,539.5772439880952,179.10696580858374,0.0,0.0,0.0,0.0,0.0,0.0,0.0,0.0,0.0,0.0,0.0,149.49091459666928,531.6796774713855,939.5353547511556,1179.5665061310738,1449.4958404303256,1511.8306845387567,1638.7567193179627,1476.291281665057,1308.1853311547964,1046.4349879826627,825.3017113207668,526.0384575170199,71.36093745481853,0.0,0.0,0.0,0.0,0.0,0.0,0.0,0.0,0.0,0.0,0.0,136.51639154043258,569.7568515178375,1016.2546733559096,1369.9559118483887,1613.9362000351673,1752.4268064305245,1792.478902428912,1745.9391913539005,1601.8073650041777,1367.135301871206,1026.4092935319743,601.9120880965264,193.21001569449805,0.0,0.0,0.0,0.0,0.0,0.0,0.0,0.0,0.0,0.0,0.0,140.18268954286253,566.3726852228268,1001.5880671521676,1354.1607788149693,1598.9867550269948,1734.656751445169,845.6095374788742,964.0744494235432,1196.7722977015903,1351.9037251556142,1002.7158868848342,590.6296481877949,179.38909751600315,0.0,0.0,0.0,0.0,0.0,0.0,0.0,0.0,0.0,0.0,0.0,164.15752080041128,309.7000056872312,979.5874507495436,1325.390415628302,1569.6528355224998,1325.954679043141,1237.3886571148166,773.9671754136474,187.00453232529352,629.2710856490858,692.4523248797751,488.8062643988038,183.05539551843307,0.0,0.0,0.0,0.0,0.0,0.0,0.0,0.0,0.0,0.0,0.0,150.90086603675516,581.0392914265689,1047.5635148123404,1416.7777546308198,1674.2961221916626,1821.530690225988,1865.2497913238165,1562.8830887384563,1686.7070889300717,1428.05948744254,1074.6410877544913,633.5023541633656,195.4663622568421,0.0,0.0,0.0,0.0,0.0,0.0,0.0,0.0,0.0,0.0,0.0,157.95274452821786,561.0135969758805,994.2547640502964,1340.057728929055,1583.1909148965644,1721.1179649740934,1769.067627489191,1730.1440583204812,1591.6534519251238,1358.6734719396572,746.0432073492383,508.8326659465032,202.5175336512937,0.0,0.0,0.0,0.0,0.0,0.0,0.0,0.0,0.0,0.0,0.0,154.2857394287768,568.3469000777516,643.9383989498389,1361.4940819168403,885.0980771594343,1759.1958461175568,1777.5294574207396,1356.4171253773134,1602.371628419016,1363.468296771765,1034.3068600486845,615.1687428601825,199.6969236741108,0.0,0.0,0.0,0.0,0.0,0.0,0.0,0.0,0.0,0.0,0.0,154.2857394287768,562.4235484159665,1000.45954032249,1354.1607788149693,1582.909490286156,1298.0307109787316,1789.3761607443098,1724.5028383661152,1587.9864468256826,1356.6992570847328,1019.6395467479311,609.8096546132363,205.33814362847656,0.0,0.0,0.0,0.0,0.0,0.0,0.0,0.0,0.0,0.0,0.0,159.36269596830374,402.4965890328239,990.305627243436,1330.7495038752484,1567.9600452779832,1707.579178503018,1749.323357648911,1696.5788703017065,1560.6267421761124,982.1259290193068,696.1193299792161,579.9114716939023,188.4144837653794,0.0,0.0,0.0,0.0,0.0,0.0,0.0,0.0,0.0,0.0,0.0,159.36269596830374,553.9617184844179,979.305319042124,1328.7752890203235,1573.8833969397683,935.304086236876,1248.9525216339564,274.1606028135316,1509.2922062689934,1350.2116420081088,1051.7940762296091,626.1690510614945,194.05570371974517,0.0,0.0,0.0,0.0,0.0,0.0,0.0,0.0,0.0,0.0,0.0,155.97782257628208,556.2180650467619,997.638930345307,1347.955295445765,1597.0125401720695,1202.9770739737835,1805.734850095557,1432.29075595682,680.3241969457965,72.48875718748504,110.84877003836743,102.3869401068189,60.0784975460871,0.0,0.0,0.0,0.0,0.0,0.0,0.0,0.0,0.0,0.0,0.0,155.97782257628208,556.7823284616006,985.2286707039092,1338.3656457815496,1587.1400517034244,1489.5486435257242,774.2493071210669,1158.412284850708,1611.6798534728232,1359.5198670619156,1028.6656400943184,530.8332823491272,216.0563201223692,0.0,0.0,0.0,0.0,0.0,0.0,0.0,0.0,0.0,0.0,0.0,88.84815363574339,544.6542005276222,968.0235862304036,1069.281999507545,1571.9091820848437,1104.8214023812443,695.5550665643774,1050.3841247895232,1341.467680369141,888.2008188440366,243.13389306452015,15.513001326000175,199.97905538153023,0.0,0.0,0.0,0.0,0.0,0.0,0.0,0.0,0.0,0.0,0.0,155.97782257628208,550.2954204819879,987.7671489736724,1346.8267686160873,1572.755577207102,1235.1323105524727,881.148940352574,1301.6977160781726,1360.0834233797432,1360.647686794582,997.9210620527264,264.57024605230544,120.1569950921742,0.0,0.0,0.0,0.0,0.0,0.0,0.0,0.0,0.0,0.0,0.0,155.6956908688627,551.9875036294933,983.8187192638233,1336.9549872444527,1585.4479685559193,1157.2837580210305,402.4965890328239,1542.857394287768,1397.879879912798,1021.3323369924476,121.00268311742133,212.10789041251985,153.43934430651862,0.0,0.0,0.0,0.0,0.0,0.0,0.0,0.0,0.0,0.0,0.0,96.18145673761438,348.0593114411025,290.51999926179,316.186913666844,526.0384575170199,748.5816856190019,1448.0858889902397,1270.3888746217417,384.7272411444797,73.33515230974321,327.7514852829948,237.77480481757385,143.28543122746478,0.0,0.0,0.0,0.0,0.0,0.0,0.0,0.0,0.0,0.0,0.0,151.74726115901333,551.141108507235,985.792934118748,1345.6989488834208,1567.678620667575,1406.3410027473356,1767.3755443416858,1713.5025301648031,1573.8833969397683,1346.8267686160873,1045.025036542577,630.3996124787633,206.74880216557352,1.974214854924677,0.0,0.0,0.0,0.0,0.0,0.0,0.0,0.0,0.0,0.0,133.41364985583033,551.141108507235,1002.7158868848342,1369.9559118483887,1635.654684730372,1303.3897992256775,1631.7055479235116,1250.6453118784727,1470.9321934181107,1316.082897671506,1059.6916427463188,624.1941291095587,228.7487114711865,1.974214854924677,0.0,0.0,0.0,0.0,0.0,0.0,0.0,0.0,0.0,0.0,124.10542480202356,547.4748105048051,976.4847090649412,1231.1831737456123,1568.8064404002414,1514.36916280852,1450.9064989674223,1622.6794545771245,1116.103842289976,1165.4634562451593,1044.7429048351576,635.4765690182902,206.4666704581541,2.25634656234407,0.0,0.0,0.0,0.0,0.0,0.0,0.0,0.0,0.0,0.0,148.0802560595723,567.5005049554933,1017.1010684781676,1368.5452533112918,1462.188938876154,1540.0367843105853,1888.6603591665264,1825.4798270328483,1684.4500352707164,1448.0858889902397,1070.4098192402116,651.2717020517098,202.79966535871307,4.230561417268747,0.0,0.0,0.0,0.0,0.0,0.0,0.0,0.0,0.0,0.0,129.74664475638926,458.3445251616423,826.429531053433,1199.592907678773,1411.7000909942817,1536.6519109185635,1623.2437179919627,1730.14335122347,1585.7301002633387,1361.7762136242595,1037.4096017332863,631.2460076010216,209.28728043533695,1.6920831475052835,0.0,0.0,0.0,0.0,0.0,0.0,0.0,0.0,0.0,0.0,137.64421127309905,508.5505342390838,820.506886488659,791.7365233019917,672.1444987216673,1097.2059675719545,1498.8561614825198,1097.2059675719545,1390.545869713916,1124.5649651245135,876.9183789353051,219.4411935143908,179.67122922342253,0.0,0.0,0.0,0.0,0.0,0.0,0.0,0.0,0.0,0.0,0.0,133.41364985583033,421.1123320434264,994.536895757716,487.396312958718,180.5169172486696,132.28512302615272,540.9871954281812,1017.1010684781676,1725.066394683943,1246.9783067790318,804.7117534552394,573.4238566172785,231.8514531557888,4.51269312468814,0.0,0.0,0.0,0.0,0.0,0.0,0.0,0.0,0.0,0.0,0.0,126.9260347792064,508.2684025316644,779.6083953680131,1406.6231344547548,1634.244026193275,1872.300962718268,1558.6525273211876,1375.0328683879156,754.7871689882063,937.8425645066394,486.2677861290404,208.4408853130788,2.25634656234407,0.0,0.0,0.0,0.0,0.0,0.0,0.0,0.0,0.0,0.0,125.51608333912051,543.2435419905253,825.0195796133473,1330.1852404604094,1569.934967229919,1714.34821819005,1565.1401423978116,1485.8816384262832,1600.6788381745002,1356.134993669894,1034.871123463523,635.1944373108709,215.20992500011104,4.230561417268747,0.0,0.0,0.0,0.0,0.0,0.0,0.0,0.0,0.0,0.0,145.82390949722824,537.8844537435789,973.3819673803388,1326.5189424579796,1580.9352754312313,1738.32375654461,1785.14489223003,1051.2298128147702,1634.5261579006942,1383.2125666120448,1003.2801502996728,647.041140634441,215.4920567075304,6.769039687032212,0.0,0.0,0.0,0.0,0.0,0.0,0.0,0.0,0.0,0.0,135.95212812559376,535.3459754738154,980.1517141643824,1153.8995917260197,882.2774671822516,352.2905799553824,1855.0958782447624,1751.5804113082663,1686.7070889300717,1182.104984400837,351.16205312570474,504.8835291396428,217.46697865946612,6.769039687032212,0.0,0.0,0.0,0.0,0.0,0.0,0.0,0.0,0.0,0.0,141.3112163725401,528.0126723719444,967.1771911081456,1330.7495038752484,1603.2180235412743,1754.11888957803,1804.042766948052,283.75025247774664,207.3123584834012,638.861442410312,823.3274964658419,453.2668615251043,152.87578798869092,0.0,0.0,0.0,0.0,0.0,0.0,0.0,0.0,0.0,0.0,0.0,121.28481482484072,528.8590674942026,971.1256208179948,1337.237118951872,1598.1403599047364,375.4190160906729,336.2133152145434,321.2638702063709,597.3986878748273,776.2235219759916,828.404453005369,630.6817441861828,217.18484695204677,0.0,0.0,0.0,0.0,0.0,0.0,0.0,0.0,0.0,0.0,0.0,86.30967536597991,484.57570298153513,928.2529148424244,1329.9038158500011,1123.1550136844276,487.396312958718,1308.4674628622158,1353.0322519852916,1070.4098192402116,1098.61591901204,531.397545763966,639.9892621429784,122.13120994709888,0.0,0.0,0.0,0.0,0.0,0.0,0.0,0.0,0.0,0.0,0.0,151.46512945159392,304.0587857328655,780.4547904902713,1037.127470025867,58.94997071640953,135.95212812559376,194.05570371974517,417.4460340409963,886.2266039891119,1330.7495038752484,854.3534991178424,29.333919504495064,219.72332522181023,0.0,0.0,0.0,0.0,0.0,0.0,0.0,0.0,0.0,0.0,0.0,132.00299131873334,522.6535841249981,953.0741412222312,1311.0059411319792,1552.4477510489944,1765.4013294867611,1816.4537336864607,1698.2709534492117,1566.8322255453168,1160.1043679982129,1020.20381016277,624.4762608169782,242.00607333185368,0.0,0.0,0.0,0.0,0.0,0.0,0.0,0.0,0.0,0.0,0.0,139.05486981019604,502.90931428471816,913.5856015416712,1293.8001495614628,1567.3964889601557,1358.1092085248188,1482.4967650342617,1748.7598013310835,1598.9867550269948,1354.724335132797,995.9468471978018,611.783869468161,209.5694121427564,0.0,0.0,0.0,0.0,0.0,0.0,0.0,0.0,0.0,0.0,0.0,137.07994785826028,507.140582798998,922.3295631806392,1271.5174014514191,1362.057638234668,1563.4473521532957,1507.0358597066493,1487.855853281208,1336.390723829614,1163.771373097654,897.5083368008324,608.6811277835587,228.7487114711865,0.0,0.0,0.0,0.0,0.0,0.0,0.0,0.0,0.0,0.0,0.0,131.43872790389457,497.2680943303524,902.585293340359,1243.312008776602,1508.164386536327,1263.33770322729,1054.0504227919532,1693.7582603245232,258.08333807269264,407.8556772797703,458.3445251616423,634.0666175782044,212.9535784377669,0.0,0.0,0.0,0.0,0.0,0.0,0.0,0.0,0.0,0.0,0.0,132.28512302615272,499.8065726001159,910.7649915644884,1253.4659218556558,1504.4973814368857,1654.5518523513826,1121.4629305369224,1052.6404713518673,1573.8833969397683,1334.4165089746891,1019.6395467479311,634.6301738960321,241.72394162443427,1.6920831475052835,0.0,0.0,0.0,0.0,0.0,0.0,0.0,0.0,0.0,0.0,124.66968821686234,507.7041391168256,936.9968764813924,1295.492232708968,1551.037092511897,1698.2716605462224,1580.9352754312313,1494.9077317726706,916.9704749336928,1189.7204192101276,947.4329212678656,597.6808195822466,236.64698508490736,1.6920831475052835,0.0,0.0,0.0,0.0,0.0,0.0,0.0,0.0,0.0,0.0,119.87486338475482,481.19082958951344,759.2998621128944,1150.2325866265785,1421.290447755508,1368.5452533112918,1411.135827579443,1027.8192449720602,1251.2095752933117,1054.0504227919532,920.637480033134,596.8344244599884,82.36124565613056,0.0,0.0,0.0,0.0,0.0,0.0,0.0,0.0,0.0,0.0,0.0,30.462446334172643,161.61904253064782,453.2668615251043,524.9099306873422,1072.948297509975,1496.599814920176,1396.469221375701,1388.8537865664107,1262.7734398124514,969.4335376704896,673.8365818691726,513.9096224860301,197.72270881918612,0.0,0.0,0.0,0.0,0.0,0.0,0.0,0.0,0.0,0.0,0.0,123.54116138718476,315.6226502520052,488.8062643988038,846.1738008937131,1285.0561879224947,1295.2108080985597,1209.4646890504075,1508.727942854155,1490.112199843552,1115.5395788751373,886.5080285995203,458.3445251616423,162.74756936032537,0.0,0.0,0.0,0.0,0.0,0.0,0.0,0.0,0.0,0.0,0.0,105.48968179142112,482.31935641919097,886.7901603069395,1234.003783722795,1126.8220187838683,1309.5952825948823,569.4754269074291,1619.2952882821137,1437.367712496347,1043.8965097128994,267.3908560294884,117.89994143281906,0.0,0.0,0.0,0.0,0.0,0.0,0.0,0.0,0.0,0.0,0.0,0.0,122.69547336193769,482.8836198340298,887.6365554291978,1244.7219602166876,1518.8825630302194,934.7405299190482,1527.344392961768,1542.293130872929,983.2544558489844,1228.3625637684293,800.7626166483791,535.0638437663961,153.721476013938,0.0,0.0,0.0,0.0,0.0,0.0,0.0,0.0,0.0,0.0,0.0,115.3614631630556,489.65265952106193,923.4580900103168,1134.437453593159,1316.082897671506,1389.6994745916577,1134.1553218857398,1077.461697731674,1340.903416954302,1360.9298185020016,920.9196117405533,600.5014295594295,234.95419484039095,1.6920831475052835,0.0,0.0,0.0,0.0,0.0,0.0,0.0,0.0,0.0,0.0,118.74633655507724,484.2935712741157,907.9443815873057,1270.1074500113334,1531.010690964198,1687.2713523449106,1534.959827771058,1727.3234483432982,1590.8070568028654,1370.2380435558082,1042.768689980233,636.040832433129,215.77418841494975,0.0,0.0,0.0,0.0,0.0,0.0,0.0,0.0,0.0,0.0,0.0,116.77212170015255,482.31935641919097,793.4293135465082,1094.948913912599,1020.20381016277,419.7023806033405,277.54476910854214,683.4262315333877,1343.724734028496,984.6644072890704,810.3529734096052,631.8095639188491,173.7478775616374,0.0,0.0,0.0,0.0,0.0,0.0,0.0,0.0,0.0,0.0,0.0,100.41272525189422,339.8796132169733,924.3044851325748,525.7563258096004,1246.414043364193,1239.081447359333,291.6478189944565,424.2150737280286,809.506578287347,785.8138787372177,627.0147390867418,349.4699699781995,68.25819577021629,0.0,0.0,0.0,0.0,0.0,0.0,0.0,0.0,0.0,0.0,0.0,51.61666761453853,359.34175134983394,130.31090817122805,349.75210168561887,419.7023806033405,796.249923523691,831.7893263973905,923.4580900103168,975.9204456501024,986.638622143995,124.10542480202356,312.2377768599836,194.3378354271645,0.0,0.0,0.0,0.0,0.0,0.0,0.0,0.0,0.0,0.0,0.0,37.79574943604364,285.7244673326714,431.26695221949126,719.8120295293455,1646.0907295168452,1383.2125666120448,1803.4792106302243,1191.1310777472245,747.7359975937546,1307.0568043251187,1062.7943844309211,644.2205306572582,224.5181500539178,0.0,0.0,0.0,0.0,0.0,0.0,0.0,0.0,0.0,0.0,0.0,94.4893735901091,493.6017963279224,962.0995274716076,1384.3403863447113,1665.2700288452752,732.2222891707434,1521.138909592563,1790.5039804769765,1646.090022419834,1422.9825309030132,1083.948605711287,491.6268743759867,205.90240704331532,0.0,0.0,0.0,0.0,0.0,0.0,0.0,0.0,0.0,0.0,0.0,102.66907181423828,485.7035227142016,931.6370811374348,1301.1334526633336,1560.0624787612733,1716.3224330449752,1232.8752568931177,1743.1185813767174,1080.282307708857,1386.5974400040666,1045.870724567824,633.7844858707849,228.4672868607782,0.0,0.0,0.0,0.0,0.0,0.0,0.0,0.0,0.0,0.0,0.0,108.31029176860396,472.7289996579648,770.3001703142064,1157.2844651180412,1363.468296771765,1523.959519569746,1729.0155314908036,1687.2706452478994,776.505653683411,1014.8447219158236,1027.537113264641,623.3484410843117,198.8512356488637,0.0,0.0,0.0,0.0,0.0,0.0,0.0,0.0,0.0,0.0,0.0,104.36115496174357,464.8314331412551,889.3286385767032,1255.158005003161,1517.4719044931223,1673.4504341664156,1727.322741246287,1713.2196913603725,1580.9352754312313,1360.3655550871626,1036.281074903609,625.3226559392364,221.97967178415428,0.0,0.0,0.0,0.0,0.0,0.0,0.0,0.0,0.0,0.0,0.0,93.0794221500232,468.2163065332768,917.8168700559512,1292.3894910243655,1153.6174600186,622.2199142546342,1800.0943372382026,1738.32375654461,1669.7834290669746,1439.059795643852,1096.359572449696,647.041140634441,206.74880216557352,0.0,0.0,0.0,0.0,0.0,0.0,0.0,0.0,0.0,0.0,0.0,83.77119709621645,466.2420916783521,856.0462893623586,894.9698585310688,417.163902333577,1064.4871746754377,1531.2928226716172,1386.879571711486,1147.1298449419762,1141.2064932801911,776.2235219759916,524.9099306873422,204.7738802136378,0.0,0.0,0.0,0.0,0.0,0.0,0.0,0.0,0.0,0.0,0.0,78.12997714185074,381.342367752458,789.4801767396476,1184.6441697676116,1308.1853311547964,1526.4979978395097,1770.1961543188686,1483.0610284491,1365.724643334109,1262.7734398124514,1034.871123463523,540.4229320133423,194.6199671345839,0.0,0.0,0.0,0.0,0.0,0.0,0.0,0.0,0.0,0.0,0.0,80.9505871190336,464.54930143383575,925.4323048652416,1298.8771061009895,1562.601664128048,1717.4509598746529,1237.670788822236,224.2360183464984,774.8135705359057,1326.23681075056,1093.8210941799323,566.6548169302462,199.97905538153023,0.0,0.0,0.0,0.0,0.0,0.0,0.0,0.0,0.0,0.0,0.0,90.54094388025972,367.80358128138255,762.4026037974966,1000.7416720299092,1375.8785564131629,870.7128955661008,719.2477661145067,1018.7931516256727,1129.9247604684708,962.0995274716076,639.4257058251507,288.8272090172736,117.05425340757196,0.0,0.0,0.0,0.0,0.0,0.0,0.0,0.0,0.0,0.0,0.0,44.56549622008693,316.4690453742634,347.4957551232748,366.3936298412967,1054.0504227919532,899.2011270453486,919.2268214960368,1381.2383517571202,1300.2877646380866,1239.6450036771607,731.094469438077,305.46873717295136,199.41479196669147,0.0,0.0,0.0,0.0,0.0,0.0,0.0,0.0,0.0,0.0,0.0,84.05332880363585,454.6775200622012,668.7596253296457,667.6310984999682,1580.6531437238116,1293.5180178540434,1284.7740562150757,1755.810972725535,1611.679146375812,1390.2637380064964,736.7356893924426,467.9341748258573,64.87332237819463,0.0,0.0,0.0,0.0,0.0,0.0,0.0,0.0,0.0,0.0,0.0,82.36124565613056,454.9596517696206,900.0468150705957,1273.4916163063438,1538.34470116308,1691.7840454695988,1746.5034547687394,1706.7327833807597,630.3996124787633,1381.5204834645397,1027.2549815572215,613.7580843230855,199.1326602592721,0.0,0.0,0.0,0.0,0.0,0.0,0.0,0.0,0.0,0.0,0.0,76.15576228692606,450.1648269375131,900.893210192854,1270.9531380365804,1531.857086086456,1686.7070889300717,1337.5192506592914,1781.7607259350193,1573.8833969397683,1357.2628134025606,1032.614069804168,612.9116892008274,171.49153099929333,0.0,0.0,0.0,0.0,0.0,0.0,0.0,0.0,0.0,0.0,0.0,71.07880574739914,354.82905822514584,898.63686363051,1274.056586818194,1543.4216577026066,1696.2967385942866,1750.451884478589,1710.6819201876203,1577.5504020392093,1004.6908088367696,1023.8701081652,599.0914781193436,196.03062567168087,0.0,0.0,0.0,0.0,0.0,0.0,0.0,0.0,0.0,0.0,0.0,42.59057426815117,238.621199939832,768.8902188741206,723.4790346287866,1110.1804906281911,1380.1098249274426,588.373301625451,539.8586685985035,695.5550665643774,1193.3874243095686,1051.2298128147702,610.6553426384834,199.6969236741108,0.0,0.0,0.0,0.0,0.0,0.0,0.0,0.0,0.0,0.0,0.0,73.89941572458198,440.0102067614482,898.9189953379292,1285.0561879224947,1543.4216577026066,1351.6215934481947,1781.7607259350193,1228.3625637684293,942.638096435758,1106.51348552875,1032.0505134863402,601.9120880965264,175.43996070
...